Circuit: * C:\Users\Dimitris\Desktop\LTSpice_Workspace\Y-Parameters\LTC6268-10-Impedance-Analyzer-transient.asc

Early termination of direct N-R iteration.
Direct Newton iteration failed to find .op point.  (Use ".option noopiter" to skip.)
Starting Gmin stepping
Gmin = 10
Gmin = 1.07374
Gmin = 0.115292
Gmin = 0.0123794
Gmin = 0.00132923
Gmin = 0.000142725
Gmin = 1.5325e-005
Gmin = 1.6455e-006
Gmin = 1.76685e-007
Gmin = 1.89714e-008
Gmin = 2.03704e-009
Gmin = 2.18725e-010
Gmin = 2.34854e-011
Gmin = 2.52173e-012
Gmin = 2.70769e-013
Gmin = 0
Gmin stepping succeeded in finding the operating point.


Date: Mon Mar 29 18:30:33 2021
Total elapsed time: 0.087 seconds.

tnom = 27
temp = 27
method = modified trap
totiter = 4477
traniter = 4042
tranpoints = 2022
accept = 1464
rejected = 558
matrix size = 28
fillins = 28
solver = Normal
Thread vector: 5.3/2.7[3] 1.5/1.0[3] 0.7/0.7[1] 0.1/0.4[1]  2592/500
Matrix Compiler1: 2.96 KB object code size  0.4/0.2/[0.1]
Matrix Compiler2: 3.32 KB object code size  0.3/0.3/[0.2]

