Circuit: * C:\Users\Dimitris\Desktop\LTSpice_Workspace\Y-Parameters\LTC6268-10-Impedance-Analyzer-transient-analogue.asc

WARNING: Node NC_01 is floating.

WARNING: Less than two connections to node NC_01.  This node is used by V4.
WARNING: Less than two connections to node N002.  This node is used by A1.
Early termination of direct N-R iteration.
Direct Newton iteration failed to find .op point.  (Use ".option noopiter" to skip.)
Starting Gmin stepping
Gmin = 10
Gmin = 1.07374
Gmin = 0.115292
Gmin = 0.0123794
Gmin = 0.00132923
Gmin = 0.000142725
Gmin = 1.5325e-005
Gmin = 1.6455e-006
Gmin = 1.76685e-007
Gmin = 1.89714e-008
Gmin = 2.03704e-009
Gmin = 2.18725e-010
Gmin = 2.34854e-011
Gmin = 2.52173e-012
Gmin = 2.70769e-013
Gmin = 0
Gmin stepping succeeded in finding the operating point.


Date: Tue Mar 30 22:20:21 2021
Total elapsed time: 0.585 seconds.

tnom = 27
temp = 27
method = modified trap
totiter = 84473
traniter = 84034
tranpoints = 41018
accept = 26020
rejected = 14998
matrix size = 32
fillins = 31
solver = Normal
Thread vector: 5.4/2.6[3] 1.5/1.0[3] 0.7/0.6[3] 0.1/0.5[1]  2592/500
Matrix Compiler1: 3.28 KB object code size  0.5/0.3/[0.1]
Matrix Compiler2: 3.56 KB object code size  0.3/0.3/[0.2]

