Circuit: * C:\Users\Dimitris\Desktop\LTSpice_Workspace\Y-Parameters\LTC6268-10-Impedance-Analyzer-transient-lcr.asc

Early termination of direct N-R iteration.
Direct Newton iteration failed to find .op point.  (Use ".option noopiter" to skip.)
Starting Gmin stepping
Gmin = 10
Gmin = 1.07374
Gmin = 0.115292
Gmin = 0.0123794
Gmin = 0.00132923
Gmin = 0.000142725
Gmin = 1.5325e-005
Gmin = 1.6455e-006
vernier = 0.5
vernier = 0.25
vernier = 0.333333
Gmin = 1.12174e-006
vernier = 0.444444
Gmin = 4.4391e-007
vernier = 0.592592
vernier = 0.790123
Gmin = 1.01552e-007
vernier = 1
Gmin = 1.24011e-008
Gmin = 1.33156e-009
Gmin = 1.42975e-010
Gmin = 1.53518e-011
Gmin = 1.64839e-012
Gmin = 1.76994e-013
Gmin = 0
Gmin stepping succeeded in finding the operating point.


Date: Tue Mar 30 13:29:16 2021
Total elapsed time: 0.053 seconds.

tnom = 27
temp = 27
method = trap
totiter = 692
traniter = 0
tranpoints = 0
accept = 0
rejected = 0
matrix size = 31
fillins = 30
solver = Normal
Matrix Compiler1:     182 opcodes
Matrix Compiler2: off  [0.2]/0.3/0.3

